
     RDKit          3D

 11 11  0  0  0  0  0  0  0  0999 V2000
    2.3657   -1.3859    0.0941 O   0  0  0  0  0  0  0  0  0  0  0  0
    1.2392   -0.8266    0.0508 C   0  0  0  0  0  0  0  0  0  0  0  0
    1.1386    0.6407    0.0257 C   0  0  0  0  0  0  0  0  0  0  0  0
   -0.0714    1.1999   -0.0202 C   0  0  0  0  0  0  0  0  0  0  0  0
   -1.2436    0.3728   -0.0441 N   0  0  0  0  0  0  0  0  0  0  0  0
   -1.1266   -1.0579   -0.0190 C   0  0  0  0  0  0  0  0  0  0  0  0
    0.0450   -1.6188    0.0257 N   0  0  0  0  0  0  0  0  0  0  0  0
    2.0289    1.2567    0.0440 H   0  0  0  0  0  0  0  0  0  0  0  0
   -0.1707    2.2777   -0.0395 H   0  0  0  0  0  0  0  0  0  0  0  0
   -2.1888    0.8146   -0.0801 H   0  0  0  0  0  0  0  0  0  0  0  0
   -2.0161   -1.6732   -0.0374 H   0  0  0  0  0  0  0  0  0  0  0  0
  1  2  2  0
  2  3  1  0
  3  4  2  0
  4  5  1  0
  5  6  1  0
  6  7  2  0
  7  2  1  0
  3  8  1  0
  4  9  1  0
  5 10  1  0
  6 11  1  0
M  END
>  <tautomer smiles>  (1) 
O=c1cc[nH]cn1

>  <Score>  (1) 
0.0

>  <Label>  (1) 
low_energy

$$$$

     RDKit          3D

 11 11  0  0  0  0  0  0  0  0999 V2000
   -0.3578    2.4218    0.0665 O   0  0  0  0  0  0  0  0  0  0  0  0
   -0.1785    1.1760    0.0323 C   0  0  0  0  0  0  0  0  0  0  0  0
    1.1764    0.6139    0.0096 C   0  0  0  0  0  0  0  0  0  0  0  0
    1.3203   -0.7147   -0.0266 C   0  0  0  0  0  0  0  0  0  0  0  0
    0.1729   -1.5840   -0.0432 N   0  0  0  0  0  0  0  0  0  0  0  0
   -1.0474   -1.1304   -0.0241 C   0  0  0  0  0  0  0  0  0  0  0  0
   -1.2929    0.2806    0.0149 N   0  0  0  0  0  0  0  0  0  0  0  0
    2.0442    1.2615    0.0218 H   0  0  0  0  0  0  0  0  0  0  0  0
    2.3124   -1.1463   -0.0438 H   0  0  0  0  0  0  0  0  0  0  0  0
   -1.8780   -1.8232   -0.0377 H   0  0  0  0  0  0  0  0  0  0  0  0
   -2.2716    0.6448    0.0302 H   0  0  0  0  0  0  0  0  0  0  0  0
  1  2  2  0
  2  3  1  0
  3  4  2  0
  4  5  1  0
  5  6  2  0
  6  7  1  0
  7  2  1  0
  3  8  1  0
  4  9  1  0
  6 10  1  0
  7 11  1  0
M  END
>  <tautomer smiles>  (2) 
O=c1ccnc[nH]1

>  <Score>  (2) 
0.18

>  <Label>  (2) 
low_energy

$$$$
